
##########################################################################
#               Crystallographic Information Format file
#               Produced by PyCifRW module
#
#  This is a CIF file.  CIF has been adopted by the International
#  Union of Crystallography as the standard for data archiving and
#  transmission.
#
#  For information on this file format, follow the CIF links at
#  http://www.iucr.org
##########################################################################

data_NO2-DMOF

_space_group_crystal_system             orthorhombic
_space_group_IT_number                  50
_space_group_name_H-M_alt               'P b a n'
_space_group_name_Hall                  '-P 2ab 2b'
loop_
  _space_group_symop_operation_xyz
         'x, y, z'           
         '-x+1/2, -y+1/2, z'           
         'x, -y+1/2, -z'     
         '-x+1/2, y, -z'     
         '-x, -y, -z'        
         'x-1/2, y-1/2, -z'  
         '-x, y-1/2, z'      
         'x-1/2, -y, z' 
_cell_length_a                          16.2647
_cell_length_b                          14.5206
_cell_length_c                          9.6475
_cell_angle_alpha                       90.0
_cell_angle_beta                        90.0
_cell_angle_gamma                       90.0
_cell_volume                            2278.5
loop_
  _atom_site_type_symbol
  _atom_site_label
  _atom_site_fract_x
  _atom_site_fract_y
  _atom_site_fract_z
         Zn        Zn        0.75      0.25      0.34566   
         O         O         0.65564   0.3384    0.3861    
         O         O         0.67007   0.1445    0.386     
         C         C         0.552     0.4954    0.6124    
         C         C         0.6377    0.3721    0.5006    
         C         C         0.486     0.5562    0.6128    
         H         H         0.4772    0.5939    0.6893    
         N         N         0.75      0.25      0.1344    
         C         C         0.567     0.4389    0.5006    
         C         C         0.7483    0.3454    0.0786    
         H         H         0.7947    0.3796    0.1149    
         H         H         0.6983    0.3758    0.1089    
         N         N         0.6066    0.5141    0.7262    
         O         O         0.5838    0.4795    0.8326    
         O         O         0.6743    0.5395    0.699 
